Circuit: * F:\LTspice Circuit Simulation\Draft3.asc

Direct Newton iteration for .op point succeeded.

Date: Fri Sep 20 14:24:39 2019
Total elapsed time: 0.078 seconds.

tnom = 27
temp = 27
method = modified trap
totiter = 583
traniter = 558
tranpoints = 280
accept = 280
rejected = 0
matrix size = 2
fillins = 0
solver = Normal
Matrix Compiler1:       2 opcodes  0.1/[0.0]/0.0
Matrix Compiler2: off  [0.0]/0.1/0.1

