Circuit: * F:\LTspice Circuit Simulation\Draft1.asc

.OP point found by inspection.

Date: Fri Sep 13 10:05:08 2019
Total elapsed time: 1.178 seconds.

tnom = 27
temp = 27
method = modified trap
totiter = 834
traniter = 834
tranpoints = 317
accept = 304
rejected = 13
matrix size = 4
fillins = 0
solver = Normal
Matrix Compiler1: 118 bytes object code size  0.1/0.1/[0.1]
Matrix Compiler2: 282 bytes object code size  0.1/0.1/[0.1]

