Circuit: * F:\LTspice Circuit Simulation\Draft2.asc

.OP point found by inspection.

Date: Fri Sep 13 09:58:38 2019
Total elapsed time: 0.047 seconds.

tnom = 27
temp = 27
method = modified trap
totiter = 820
traniter = 820
tranpoints = 356
accept = 328
rejected = 28
matrix size = 3
fillins = 0
solver = Normal
Matrix Compiler1:       5 opcodes  0.0/[0.0]/0.0
Matrix Compiler2: 163 bytes object code size  0.0/0.0/[0.0]

