Circuit: * F:\Proteus\Draft3.asc

.OP point found by inspection.

Date: Fri Sep 06 03:05:43 2019
Total elapsed time: 0.084 seconds.

tnom = 27
temp = 27
method = modified trap
totiter = 5928
traniter = 5928
tranpoints = 1677
accept = 1449
rejected = 228
matrix size = 4
fillins = 0
solver = Normal
Matrix Compiler1: 118 bytes object code size  0.1/0.0/[0.0]
Matrix Compiler2: 282 bytes object code size  0.1/0.1/[0.1]

