Circuit: * F:\Proteus\Draft1.asc

Direct Newton iteration for .op point succeeded.

Date: Fri Sep 06 01:40:08 2019
Total elapsed time: 0.052 seconds.

tnom = 27
temp = 27
method = modified trap
totiter = 82
traniter = 74
tranpoints = 38
accept = 38
rejected = 0
matrix size = 3
fillins = 0
solver = Normal
Matrix Compiler1: 50 bytes object code size
Matrix Compiler2: 175 bytes object code size
