Circuit: * F:\Proteus\EC1.asc

Direct Newton iteration for .op point succeeded.

Date: Thu Sep 05 01:17:43 2019
Total elapsed time: 0.399 seconds.

tnom = 27
temp = 27
method = modified trap
totiter = 69
traniter = 62
tranpoints = 32
accept = 32
rejected = 0
matrix size = 3
fillins = 0
solver = Normal
Matrix Compiler1: 86 bytes object code size
Matrix Compiler2: 163 bytes object code size
